	40
SCF DONE	 -1047.382241
Bi	    7.101701	    2.069194	    1.936942
Bi	    1.929803	    4.140542	    4.079193
O	    9.989968	    1.240419	    4.899163
O	    1.552808	    6.263349	    3.855452
O	    2.714055	    2.065952	    3.139132
Bi	    5.229662	    4.472237	    4.923316
Bi	   10.261900	    1.474959	    0.347807
O	    7.355002	    0.750468	    4.067122
O	   10.574510	    3.309051	   -0.708808
O	    1.022176	    0.017069	    2.979390
Bi	    1.740317	    1.014369	    4.914539
Bi	    5.897055	    5.818725	    1.726898
O	    3.421316	    2.961860	    5.321854
O	    1.644706	    4.124893	    1.662482
O	    9.251017	    2.937220	    1.849643
Bi	    3.143384	   -0.090975	    2.250035
Bi	    0.662223	    2.018981	    1.970471
O	   10.706367	    4.934828	    2.649872
O	    5.840821	    3.671140	    0.940042
O	    6.508252	    6.035393	    3.960988
Bi	    3.751821	    3.012412	    1.337116
Bi	   10.911239	    2.905862	    3.618236
O	    5.031960	    1.176182	    2.232352
O	    9.565245	    3.986825	    5.101023
O	    6.971952	    3.411768	    3.814591
Bi	    2.380697	    6.299491	    1.881531
Bi	    5.112158	    1.373576	    4.564159
O	    8.133381	    5.912571	    1.462487
O	    2.366424	    1.312698	    0.656868
O	   11.127979	    0.982829	    2.324328
Bi	    9.850100	    4.863873	    0.605786
Bi	    8.586623	    5.276924	    3.598175
O	    3.556298	   -0.220908	    4.511912
O	    8.552651	    0.362466	    1.214024
O	    3.972049	    4.808687	    2.964670
Bi	    8.173276	    2.348463	    5.577970
Bi	    9.318219	   -0.047260	    3.264457
O	    4.154473	    6.775189	    0.815661
O	    6.092948	    2.719921	    6.119506
O	    0.338150	    2.583392	    4.169395

Force
gnorm: 0.000047
Bi	      4.476916e-04	      1.011647e-04	      5.494789e-04	    3.0000
Bi	     -1.505656e-04	      8.337819e-05	     -8.328342e-07	    3.0000
O	     -2.309756e-04	      6.953310e-04	      3.225600e-04	   -2.0000
O	      1.885546e-04	     -6.983550e-04	      7.190346e-04	   -2.0000
O	     -3.870531e-04	     -2.318652e-04	     -1.201236e-04	   -2.0000
Bi	      4.128007e-04	      2.757413e-04	     -3.139367e-04	    3.0000
Bi	     -7.498297e-04	     -1.859243e-03	      9.819400e-04	    3.0000
O	     -3.817573e-04	      4.344142e-04	      6.811218e-04	   -2.0000
O	     -7.204391e-04	     -5.125262e-04	     -9.939518e-04	   -2.0000
O	     -8.516234e-05	     -2.133742e-04	     -1.076460e-03	   -2.0000
Bi	     -7.621910e-04	     -9.370689e-04	     -7.203236e-04	    3.0000
Bi	      1.293865e-04	      2.322404e-04	      2.253438e-04	    3.0000
O	      3.648046e-04	     -4.962930e-04	     -1.231675e-04	   -2.0000
O	      1.348823e-04	      5.853108e-05	      1.252703e-04	   -2.0000
O	      1.237408e-04	     -5.321488e-04	     -4.130420e-04	   -2.0000
Bi	      2.618229e-04	     -1.081883e-05	     -5.141358e-04	    3.0000
Bi	     -3.646995e-05	      5.708331e-05	     -8.133620e-04	    3.0000
O	     -1.581003e-04	      1.739851e-04	     -8.790311e-04	   -2.0000
O	      2.456576e-05	      1.755027e-04	      2.804630e-04	   -2.0000
O	     -7.675169e-05	      4.429875e-04	      3.138917e-04	   -2.0000
Bi	      2.834439e-04	      2.885212e-04	      9.080783e-05	    3.0000
Bi	     -2.251071e-04	     -4.114912e-05	     -2.926928e-04	    3.0000
O	     -1.235925e-04	      3.179451e-04	      7.749749e-04	   -2.0000
O	      2.945511e-04	      5.409549e-04	      1.852538e-05	   -2.0000
O	      8.047074e-04	      1.181118e-03	      8.397426e-05	   -2.0000
Bi	      1.509521e-04	      1.360758e-04	      6.157490e-04	    3.0000
Bi	     -2.185196e-04	     -7.960276e-04	      6.313978e-04	    3.0000
O	      3.495272e-04	      6.691578e-05	     -2.175216e-04	   -2.0000
O	      4.752340e-04	      3.105710e-04	     -3.525672e-04	   -2.0000
O	     -2.126711e-04	     -2.625605e-04	     -3.687859e-04	   -2.0000
Bi	     -9.527846e-04	     -3.800129e-04	      2.211270e-04	    3.0000
Bi	      6.561893e-04	      9.543082e-04	      1.626567e-04	    3.0000
O	     -3.870290e-04	     -2.792269e-04	     -2.490109e-04	   -2.0000
O	     -2.746663e-04	     -2.134201e-04	      3.165095e-04	   -2.0000
O	      1.079014e-04	     -1.959305e-04	      2.575140e-04	   -2.0000
Bi	      1.735335e-03	      8.171369e-04	     -4.896081e-04	    3.0000
Bi	     -4.248606e-05	      2.736331e-04	      3.820554e-04	    3.0000
O	      3.534629e-05	      3.004152e-04	      6.233850e-04	   -2.0000
O	     -5.471850e-04	      2.220329e-04	      5.716341e-05	   -2.0000
O	     -2.581006e-04	     -4.799665e-04	     -4.963904e-04	   -2.0000
